data_md
_audit_creation_date              2026-02-03
_audit_creation_method            'restart_to_cif.py'
_symmetry_space_group_name_H-M    'P1'
_symmetry_Int_Tables_number       1
_symmetry_cell_setting            triclinic
loop_
_symmetry_equiv_pos_as_xyz
  x,y,z
_cell_length_a                    10.2239
_cell_length_b                    10.2239
_cell_length_c                    26.4220
_cell_angle_alpha                 90.0000
_cell_angle_beta                  90.0000
_cell_angle_gamma                 90.0000
loop_
_atom_site_label
_atom_site_type_symbol
_atom_site_fract_x
_atom_site_fract_y
_atom_site_fract_z
_atom_site_U_iso_or_equiv
_atom_site_adp_type
_atom_site_occupancy
Cu1    Cu    0.96185   0.00628   0.97288   0.01267  Uiso   1.00
Cu2    Cu    0.21925   0.25225   0.97229   0.01267  Uiso   1.00
Cu3    Cu    0.97515   0.99825   0.10248   0.01267  Uiso   1.00
Cu4    Cu    0.22169   0.25436   0.11090   0.01267  Uiso   1.00
Cu5    Cu    0.20930   0.99302   0.97868   0.01267  Uiso   1.00
Cu6    Cu    0.97416   0.24881   0.97756   0.01267  Uiso   1.00
Cu7    Cu    0.20118   0.97889   0.11021   0.01267  Uiso   1.00
Cu8    Cu    0.96497   0.25002   0.10402   0.01267  Uiso   1.00
Cu9    Cu    0.32272   0.10759   0.91230   0.01267  Uiso   1.00
Cu10   Cu    0.08841   0.36524   0.90895   0.01267  Uiso   1.00
Cu11   Cu    0.33866   0.12043   0.04435   0.01267  Uiso   1.00
Cu12   Cu    0.10399   0.38063   0.04069   0.01267  Uiso   1.00
Cu13   Cu    0.07963   0.12879   0.89588   0.01267  Uiso   1.00
Ag1    Ag    0.33762   0.36793   0.89346   0.00000  Uiso   1.00
Cu14   Cu    0.10313   0.12170   0.04068   0.01267  Uiso   1.00
Cu15   Cu    0.34643   0.35895   0.04338   0.01267  Uiso   1.00
Cu16   Cu    0.46466   0.99731   0.97278   0.01267  Uiso   1.00
Cu17   Cu    0.71315   0.24407   0.97968   0.01267  Uiso   1.00
Cu18   Cu    0.45716   0.98333   0.11496   0.01267  Uiso   1.00
Cu19   Cu    0.71068   0.24624   0.11122   0.01267  Uiso   1.00
Cu20   Cu    0.71251   0.99370   0.97203   0.01267  Uiso   1.00
Cu21   Cu    0.47558   0.24375   0.97789   0.01267  Uiso   1.00
Cu22   Cu    0.72288   0.99109   0.11204   0.01267  Uiso   1.00
Cu23   Cu    0.47964   0.22550   0.10786   0.01267  Uiso   1.00
Cu24   Cu    0.83277   0.12374   0.90562   0.01267  Uiso   1.00
Cu25   Cu    0.59465   0.37453   0.91071   0.01267  Uiso   1.00
Cu26   Cu    0.84813   0.11397   0.04174   0.01267  Uiso   1.00
Cu27   Cu    0.59183   0.36491   0.04528   0.01267  Uiso   1.00
Cu28   Cu    0.58719   0.13152   0.91069   0.01267  Uiso   1.00
Cu29   Cu    0.83253   0.35540   0.91235   0.01267  Uiso   1.00
Cu30   Cu    0.60706   0.11860   0.04656   0.01267  Uiso   1.00
Cu31   Cu    0.83780   0.38052   0.04254   0.01267  Uiso   1.00
Cu32   Cu    0.96277   0.50708   0.97518   0.01267  Uiso   1.00
Cu33   Cu    0.21807   0.74696   0.97128   0.01267  Uiso   1.00
Cu34   Cu    0.96753   0.47944   0.11334   0.01267  Uiso   1.00
Cu35   Cu    0.22340   0.73271   0.10845   0.01267  Uiso   1.00
Cu36   Cu    0.21520   0.49425   0.97022   0.01267  Uiso   1.00
Cu37   Cu    0.94962   0.74424   0.97464   0.01267  Uiso   1.00
Cu38   Cu    0.21600   0.49336   0.11010   0.01267  Uiso   1.00
Cu39   Cu    0.95849   0.75664   0.11390   0.01267  Uiso   1.00
Cu40   Cu    0.33036   0.62726   0.90607   0.01267  Uiso   1.00
Cu41   Cu    0.07912   0.87671   0.90748   0.01267  Uiso   1.00
Cu42   Cu    0.34669   0.61121   0.03934   0.01267  Uiso   1.00
Cu43   Cu    0.08977   0.86474   0.04281   0.01267  Uiso   1.00
Cu44   Cu    0.07422   0.61158   0.90771   0.01267  Uiso   1.00
Cu45   Cu    0.32901   0.87575   0.90913   0.01267  Uiso   1.00
Cu46   Cu    0.09764   0.62511   0.04175   0.01267  Uiso   1.00
Cu47   Cu    0.34521   0.86122   0.04215   0.01267  Uiso   1.00
Cu48   Cu    0.46722   0.48277   0.97602   0.01267  Uiso   1.00
Cu49   Cu    0.71069   0.74721   0.97111   0.01267  Uiso   1.00
Ag2    Ag    0.46703   0.47153   0.12548   0.00000  Uiso   1.00
Cu50   Cu    0.71280   0.73113   0.11518   0.01267  Uiso   1.00
Cu51   Cu    0.71221   0.48366   0.97439   0.01267  Uiso   1.00
Cu52   Cu    0.47077   0.73381   0.97459   0.01267  Uiso   1.00
Cu53   Cu    0.72752   0.50121   0.10807   0.01267  Uiso   1.00
Cu54   Cu    0.46780   0.75366   0.10600   0.01267  Uiso   1.00
Cu55   Cu    0.82552   0.59498   0.90773   0.01267  Uiso   1.00
Cu56   Cu    0.58109   0.87486   0.90739   0.01267  Uiso   1.00
Cu57   Cu    0.84853   0.63167   0.04625   0.01267  Uiso   1.00
Cu58   Cu    0.59823   0.86136   0.04137   0.01267  Uiso   1.00
Cu59   Cu    0.57304   0.60907   0.90466   0.01267  Uiso   1.00
Cu60   Cu    0.83121   0.87413   0.90566   0.01267  Uiso   1.00
Cu61   Cu    0.58600   0.60342   0.04915   0.01267  Uiso   1.00
Cu62   Cu    0.83686   0.87802   0.04604   0.01267  Uiso   1.00
O1     O     0.55039   0.65709   0.22502   0.00000  Uiso   1.00
H1     H     0.56829   0.69025   0.19143   0.00000  Uiso   1.00
H2     H     0.45383   0.64551   0.22776   0.00000  Uiso   1.00
O2     O     0.87402   0.62190   0.23020   0.00000  Uiso   1.00
H3     H     0.78877   0.61396   0.24685   0.00000  Uiso   1.00
H4     H     0.86556   0.61610   0.19295   0.00000  Uiso   1.00
O3     O     0.15623   0.15108   0.61442   0.00000  Uiso   1.00
H5     H     0.14673   0.07761   0.64170   0.00000  Uiso   1.00
H6     H     0.21449   0.10540   0.58976   0.00000  Uiso   1.00
O4     O     0.49451   0.98055   0.20748   0.00000  Uiso   1.00
H7     H     0.42589   0.92533   0.22520   0.00000  Uiso   1.00
H8     H     0.46610   0.06771   0.21865   0.00000  Uiso   1.00
O5     O     0.15338   0.99167   0.23169   0.00000  Uiso   1.00
H9     H     0.12934   0.08807   0.23235   0.00000  Uiso   1.00
H10    H     0.18122   0.98632   0.19406   0.00000  Uiso   1.00
O6     O     0.70322   0.41025   0.47420   0.00000  Uiso   1.00
H11    H     0.68945   0.36803   0.51085   0.00000  Uiso   1.00
H12    H     0.77514   0.37408   0.45168   0.00000  Uiso   1.00
O7     O     0.12446   0.48883   0.64990   0.00000  Uiso   1.00
H13    H     0.17334   0.42542   0.62880   0.00000  Uiso   1.00
H14    H     0.09164   0.55564   0.62574   0.00000  Uiso   1.00
O8     O     0.80075   0.07717   0.78145   0.00000  Uiso   1.00
H15    H     0.81301   0.05485   0.74310   0.00000  Uiso   1.00
H16    H     0.72165   0.12353   0.78491   0.00000  Uiso   1.00
O9     O     0.67616   0.44077   0.78190   0.00000  Uiso   1.00
H17    H     0.77149   0.43452   0.78943   0.00000  Uiso   1.00
H18    H     0.65503   0.44154   0.74524   0.00000  Uiso   1.00
O10    O     0.29618   0.76750   0.49534   0.00000  Uiso   1.00
H19    H     0.35017   0.71271   0.51736   0.00000  Uiso   1.00
H20    H     0.31426   0.76130   0.45831   0.00000  Uiso   1.00
O11    O     0.76503   0.23652   0.64166   0.00000  Uiso   1.00
H21    H     0.73107   0.25761   0.60593   0.00000  Uiso   1.00
H22    H     0.80681   0.31413   0.65959   0.00000  Uiso   1.00
O12    O     0.05985   0.12010   0.81488   0.00000  Uiso   1.00
H23    H     0.96792   0.14231   0.80221   0.00000  Uiso   1.00
H24    H     0.12071   0.19022   0.80346   0.00000  Uiso   1.00
O13    O     0.58137   0.45946   0.68850   0.00000  Uiso   1.00
H25    H     0.50805   0.51469   0.69613   0.00000  Uiso   1.00
H26    H     0.61704   0.50698   0.65868   0.00000  Uiso   1.00
O14    O     0.77014   0.25744   0.32642   0.00000  Uiso   1.00
H27    H     0.70665   0.34097   0.33465   0.00000  Uiso   1.00
H28    H     0.80251   0.26267   0.29064   0.00000  Uiso   1.00
O15    O     0.66821   0.59282   0.61031   0.00000  Uiso   1.00
H29    H     0.72591   0.67889   0.61360   0.00000  Uiso   1.00
H30    H     0.73332   0.52868   0.59737   0.00000  Uiso   1.00
O16    O     0.90692   0.34786   0.41185   0.00000  Uiso   1.00
H31    H     0.88300   0.29663   0.38186   0.00000  Uiso   1.00
H32    H     0.98414   0.30149   0.43152   0.00000  Uiso   1.00
O17    O     0.38036   0.84305   0.65084   0.00000  Uiso   1.00
H33    H     0.36179   0.91011   0.62586   0.00000  Uiso   1.00
H34    H     0.47474   0.86794   0.66466   0.00000  Uiso   1.00
O18    O     0.56902   0.44321   0.34040   0.00000  Uiso   1.00
H35    H     0.62446   0.52607   0.33542   0.00000  Uiso   1.00
H36    H     0.56868   0.42310   0.30249   0.00000  Uiso   1.00
O19    O     0.82367   0.23405   0.21853   0.00000  Uiso   1.00
H37    H     0.80392   0.14098   0.20818   0.00000  Uiso   1.00
H38    H     0.91831   0.24395   0.21022   0.00000  Uiso   1.00
O20    O     0.49507   0.13533   0.49764   0.00000  Uiso   1.00
H39    H     0.45298   0.16216   0.46317   0.00000  Uiso   1.00
H40    H     0.56990   0.07502   0.48773   0.00000  Uiso   1.00
O21    O     0.31247   0.79783   0.40202   0.00000  Uiso   1.00
H41    H     0.39719   0.79476   0.38201   0.00000  Uiso   1.00
H42    H     0.27365   0.89144   0.40126   0.00000  Uiso   1.00
O22    O     0.42060   0.90494   0.78843   0.00000  Uiso   1.00
H43    H     0.42679   0.94313   0.82263   0.00000  Uiso   1.00
H44    H     0.33530   0.86247   0.78293   0.00000  Uiso   1.00
O23    O     0.95625   0.72170   0.79972   0.00000  Uiso   1.00
H45    H     0.90059   0.74037   0.76727   0.00000  Uiso   1.00
H46    H     0.91399   0.78680   0.82394   0.00000  Uiso   1.00
O24    O     0.27044   0.41413   0.50146   0.00000  Uiso   1.00
H47    H     0.34533   0.43173   0.47926   0.00000  Uiso   1.00
H48    H     0.32151   0.38339   0.53026   0.00000  Uiso   1.00
O25    O     0.89678   0.61800   0.40886   0.00000  Uiso   1.00
H49    H     0.90147   0.51868   0.40815   0.00000  Uiso   1.00
H50    H     0.97690   0.64899   0.39296   0.00000  Uiso   1.00
O26    O     0.37866   0.40334   0.59538   0.00000  Uiso   1.00
H51    H     0.40087   0.50026   0.59111   0.00000  Uiso   1.00
H52    H     0.36945   0.38555   0.63250   0.00000  Uiso   1.00
O27    O     0.26940   0.53027   0.79292   0.00000  Uiso   1.00
H53    H     0.23453   0.58855   0.81891   0.00000  Uiso   1.00
H54    H     0.29281   0.58631   0.76207   0.00000  Uiso   1.00
O28    O     0.87887   0.45699   0.68799   0.00000  Uiso   1.00
H55    H     0.96855   0.46896   0.67247   0.00000  Uiso   1.00
H56    H     0.89454   0.42817   0.72428   0.00000  Uiso   1.00
O29    O     0.67739   0.95518   0.45818   0.00000  Uiso   1.00
H57    H     0.74223   0.95952   0.48652   0.00000  Uiso   1.00
H58    H     0.65705   0.85849   0.45479   0.00000  Uiso   1.00
O30    O     0.34449   0.24722   0.67677   0.00000  Uiso   1.00
H59    H     0.27730   0.21049   0.65422   0.00000  Uiso   1.00
H60    H     0.41649   0.17795   0.67451   0.00000  Uiso   1.00
O31    O     0.08958   0.50481   0.27932   0.00000  Uiso   1.00
H61    H     0.08161   0.55417   0.31141   0.00000  Uiso   1.00
H62    H     0.01946   0.54466   0.25579   0.00000  Uiso   1.00
O32    O     0.85838   0.01499   0.53323   0.00000  Uiso   1.00
H63    H     0.89020   0.10395   0.54297   0.00000  Uiso   1.00
H64    H     0.93753   0.96411   0.52752   0.00000  Uiso   1.00
O33    O     0.01694   0.94404   0.34026   0.00000  Uiso   1.00
H65    H     0.96299   0.93156   0.31053   0.00000  Uiso   1.00
H66    H     0.94657   0.93841   0.36554   0.00000  Uiso   1.00
O34    O     0.02003   0.75869   0.51106   0.00000  Uiso   1.00
H67    H     0.11304   0.74521   0.50535   0.00000  Uiso   1.00
H68    H     0.97583   0.67908   0.49940   0.00000  Uiso   1.00
O35    O     0.53611   0.81320   0.34017   0.00000  Uiso   1.00
H69    H     0.49471   0.82278   0.30748   0.00000  Uiso   1.00
H70    H     0.58275   0.89809   0.34892   0.00000  Uiso   1.00
O36    O     0.23949   0.26280   0.32986   0.00000  Uiso   1.00
H71    H     0.28573   0.24700   0.29865   0.00000  Uiso   1.00
H72    H     0.16801   0.32970   0.33199   0.00000  Uiso   1.00
O37    O     0.58457   0.65514   0.81790   0.00000  Uiso   1.00
H73    H     0.50534   0.69342   0.80300   0.00000  Uiso   1.00
H74    H     0.60464   0.57409   0.79610   0.00000  Uiso   1.00
O38    O     0.73213   0.84413   0.60798   0.00000  Uiso   1.00
H75    H     0.75685   0.88370   0.64197   0.00000  Uiso   1.00
H76    H     0.76660   0.89224   0.57938   0.00000  Uiso   1.00
O39    O     0.57442   0.11624   0.69188   0.00000  Uiso   1.00
H77    H     0.58140   0.15894   0.72471   0.00000  Uiso   1.00
H78    H     0.63255   0.16772   0.66944   0.00000  Uiso   1.00
O40    O     0.20859   0.02412   0.40638   0.00000  Uiso   1.00
H79    H     0.14922   0.02332   0.37567   0.00000  Uiso   1.00
H80    H     0.28754   0.08376   0.40242   0.00000  Uiso   1.00
O41    O     0.26965   0.26688   0.78176   0.00000  Uiso   1.00
H81    H     0.27335   0.36568   0.78710   0.00000  Uiso   1.00
H82    H     0.27182   0.26028   0.74555   0.00000  Uiso   1.00
O42    O     0.73811   0.64072   0.31746   0.00000  Uiso   1.00
H83    H     0.67486   0.71494   0.32153   0.00000  Uiso   1.00
H84    H     0.79271   0.64208   0.34727   0.00000  Uiso   1.00
O43    O     0.10390   0.69624   0.35899   0.00000  Uiso   1.00
H85    H     0.06320   0.77620   0.34465   0.00000  Uiso   1.00
H86    H     0.18894   0.73159   0.36957   0.00000  Uiso   1.00
O44    O     0.10548   0.23598   0.45669   0.00000  Uiso   1.00
H87    H     0.15660   0.16276   0.44258   0.00000  Uiso   1.00
H88    H     0.16137   0.29761   0.47198   0.00000  Uiso   1.00
O45    O     0.61154   0.30607   0.56329   0.00000  Uiso   1.00
H89    H     0.57190   0.24133   0.53700   0.00000  Uiso   1.00
H90    H     0.52447   0.33933   0.57555   0.00000  Uiso   1.00
O46    O     0.87071   0.51531   0.54846   0.00000  Uiso   1.00
H91    H     0.80058   0.50720   0.52321   0.00000  Uiso   1.00
H92    H     0.91696   0.42458   0.54675   0.00000  Uiso   1.00
O47    O     0.57191   0.83922   0.70970   0.00000  Uiso   1.00
H93    H     0.60384   0.93228   0.70446   0.00000  Uiso   1.00
H94    H     0.51944   0.84685   0.74073   0.00000  Uiso   1.00
O48    O     0.74479   0.85545   0.83291   0.00000  Uiso   1.00
H95    H     0.68613   0.78346   0.82438   0.00000  Uiso   1.00
H96    H     0.73112   0.93360   0.80972   0.00000  Uiso   1.00
O49    O     0.36731   0.21293   0.23485   0.00000  Uiso   1.00
H97    H     0.30657   0.23292   0.20554   0.00000  Uiso   1.00
H98    H     0.44238   0.27221   0.23576   0.00000  Uiso   1.00
O50    O     0.98202   0.24885   0.54610   0.00000  Uiso   1.00
H99    H     0.03070   0.21883   0.51365   0.00000  Uiso   1.00
H100   H     0.04960   0.21872   0.57356   0.00000  Uiso   1.00
O51    O     0.41608   0.17735   0.40095   0.00000  Uiso   1.00
H101   H     0.50090   0.13735   0.38557   0.00000  Uiso   1.00
H102   H     0.37817   0.24552   0.38001   0.00000  Uiso   1.00
O52    O     0.57845   0.40180   0.23711   0.00000  Uiso   1.00
H103   H     0.65500   0.35220   0.22675   0.00000  Uiso   1.00
H104   H     0.59023   0.50145   0.22999   0.00000  Uiso   1.00
O53    O     0.81446   0.71555   0.72010   0.00000  Uiso   1.00
H105   H     0.83548   0.62416   0.70738   0.00000  Uiso   1.00
H106   H     0.72200   0.73034   0.71664   0.00000  Uiso   1.00
O54    O     0.83773   0.01446   0.67806   0.00000  Uiso   1.00
H107   H     0.92883   0.00642   0.68030   0.00000  Uiso   1.00
H108   H     0.83088   0.09586   0.65737   0.00000  Uiso   1.00
O55    O     0.62463   0.04734   0.36654   0.00000  Uiso   1.00
H109   H     0.68040   0.11489   0.34871   0.00000  Uiso   1.00
H110   H     0.66903   0.03259   0.39926   0.00000  Uiso   1.00
O56    O     0.28545   0.60519   0.22893   0.00000  Uiso   1.00
H111   H     0.27605   0.58704   0.19293   0.00000  Uiso   1.00
H112   H     0.23840   0.54452   0.25086   0.00000  Uiso   1.00
O57    O     0.31258   0.63260   0.70497   0.00000  Uiso   1.00
H113   H     0.32665   0.72279   0.69098   0.00000  Uiso   1.00
H114   H     0.24702   0.58857   0.68342   0.00000  Uiso   1.00
O58    O     0.65364   0.71527   0.45117   0.00000  Uiso   1.00
H115   H     0.73507   0.68418   0.43570   0.00000  Uiso   1.00
H116   H     0.58716   0.64441   0.44771   0.00000  Uiso   1.00
O59    O     0.73843   0.99976   0.18976   0.00000  Uiso   1.00
H117   H     0.64510   0.96140   0.20098   0.00000  Uiso   1.00
H118   H     0.80380   0.93574   0.20630   0.00000  Uiso   1.00
O60    O     0.30846   0.99768   0.54769   0.00000  Uiso   1.00
H119   H     0.31434   0.91767   0.52647   0.00000  Uiso   1.00
H120   H     0.38653   0.04776   0.53293   0.00000  Uiso   1.00
O61    O     0.02666   0.71699   0.61133   0.00000  Uiso   1.00
H121   H     0.95546   0.75043   0.62982   0.00000  Uiso   1.00
H122   H     0.01246   0.73819   0.57440   0.00000  Uiso   1.00
O62    O     0.15998   0.87186   0.76801   0.00000  Uiso   1.00
H123   H     0.13048   0.95049   0.78814   0.00000  Uiso   1.00
H124   H     0.08868   0.80672   0.77737   0.00000  Uiso   1.00
O63    O     0.43128   0.65428   0.57543   0.00000  Uiso   1.00
H125   H     0.52715   0.65511   0.57648   0.00000  Uiso   1.00
H126   H     0.41396   0.71538   0.60356   0.00000  Uiso   1.00
O64    O     0.34384   0.83910   0.26613   0.00000  Uiso   1.00
H127   H     0.26112   0.88882   0.26764   0.00000  Uiso   1.00
H128   H     0.30562   0.76163   0.25171   0.00000  Uiso   1.00
O65    O     0.48902   0.51803   0.43873   0.00000  Uiso   1.00
H129   H     0.56296   0.46232   0.45217   0.00000  Uiso   1.00
H130   H     0.47058   0.48661   0.40352   0.00000  Uiso   1.00
O66    O     0.91246   0.88860   0.24082   0.00000  Uiso   1.00
H131   H     0.91380   0.78450   0.24038   0.00000  Uiso   1.00
H132   H     0.00196   0.90260   0.22650   0.00000  Uiso   1.00
O67    O     0.10960   0.28567   0.22332   0.00000  Uiso   1.00
H133   H     0.10686   0.36109   0.25039   0.00000  Uiso   1.00
H134   H     0.12747   0.33653   0.19417   0.00000  Uiso   1.00
O68    O     0.08204   0.94586   0.67582   0.00000  Uiso   1.00
H135   H     0.11616   0.91779   0.70915   0.00000  Uiso   1.00
H136   H     0.08742   0.86497   0.65420   0.00000  Uiso   1.00
O69    O     0.93428   0.44492   0.79736   0.00000  Uiso   1.00
H137   H     0.96793   0.53841   0.80585   0.00000  Uiso   1.00
H138   H     0.96377   0.39722   0.82604   0.00000  Uiso   1.00
O70    O     0.55653   0.20866   0.80514   0.00000  Uiso   1.00
H139   H     0.59189   0.29897   0.80542   0.00000  Uiso   1.00
H140   H     0.46089   0.21535   0.79425   0.00000  Uiso   1.00
